24
Lattice="5.614427842621188 0.0 0.0 0.0 4.862237139424608 0.0 0.0 0.0 30.00" Properties=species:S:1:pos:R:3:tags:I:1 pbc="T T F"
Pt1 1.40360696 0.81037286 5
Pt1 4.21082088 0.81037286 5
Pt1 0.00000000 3.24149143 5
Pt1 2.80721392 3.24149143 5
Pt1 0.00000000 1.62074571 7.29208
Pt1 2.80721392 1.62074571 7.29208
Pt1 1.40360696 4.05186428 7.29208
Pt1 4.21082088 4.05186428 7.29208
Pt1 0.00000000 0.00000000 9.58416
Pt1 2.80721392 0.00000000 9.58416
Pt1 1.40360696 2.43111857 9.58416
Pt1 4.21082088 2.43111857 9.58416
Pt2 1.40360696 0.81037286 19.5842
Pt2 4.21082088 0.81037286 19.5842
Pt2 0.00000000 3.24149143 19.5842
Pt2 2.80721392 3.24149143 19.5842
Pt2 0.00000000 1.62074571 21.8762
Pt2 2.80721392 1.62074571 21.8762
Pt2 1.40360696 4.05186428 21.8762
Pt2 4.21082088 4.05186428 21.8762
Pt2 0.00000000 0.00000000 24.1683
Pt2 2.80721392 0.00000000 24.1683
Pt2 1.40360696 2.43111857 24.1683
Pt2 4.21082088 2.43111857 24.1683
